         487
   4.000000    
 F   2.072560       4.152050      -2.556499    
 F  -1.043380       3.422950      -1.920000    
 F  0.1159201       4.263250      -3.778400    
 F  0.9638070       3.347240     -0.8599987    
 F  0.3148301       5.301050      -1.927599    
 F  0.8267251       2.307020      -2.841200    
 P  0.5363371       3.742351      -2.336300    
 F   2.308388      -1.407700      -2.032499    
 F   4.074310      -3.092740      -3.988899    
 F   4.464250      -2.131250      -2.026600    
 F   1.862503      -2.624790      -3.929699    
 F   3.541480      -1.013380      -3.879099    
 F   2.816650      -3.600180      -2.078600    
 P   3.172030      -2.317450      -3.008499    
 F   1.063177       1.883060      -9.283497    
 F   3.514860       3.141360      -8.019596    
 F   3.042590       2.543640      -10.12050    
 F   1.571486       2.340250      -7.307400    
 F   3.015360       1.081010      -8.519398    
 F   1.823123       3.969250      -8.857597    
 P   2.346220       2.523231      -8.676296    
 F  -2.554530      -3.569210       2.199401    
 F  -4.467380     -0.9088297       2.290601    
 F  -2.609510      -1.589090       1.260401    
 F  -4.511080      -3.099000       3.351001    
 F  -2.731980      -1.742340       3.449100    
 F  -4.463590      -2.875910       1.001301    
 P  -3.530660      -2.293040       2.299200    
 F   10.26721       3.044291      -1.146200    
 F   7.477740       3.668150      -2.553400    
 F   9.327800       4.780050      -2.115099    
 F   8.427970       1.778880      -1.587200    
 F   8.173180       3.831050     -0.4364996    
 F   9.412650       2.837080      -3.200199    
 P   8.804240       3.282001      -1.787699    
 F  -8.544300       5.721251      -1.618200    
 F  -8.044480       3.164030      -3.499699    
 F  -7.849280       3.764750      -1.259199    
 F  -8.546910       5.456551      -3.830799    
 F  -6.752140       4.903050      -2.788599    
 F  -9.761120       4.084550      -2.449600    
 P  -8.244511       4.495550      -2.646000    
 F   3.089340     -0.7071800       4.878000    
 F   4.377280      -3.162010       6.463751    
 F   2.715470      -2.929120       5.035701    
 F   4.948990      -1.043330       6.333080    
 F   2.889550      -1.661880       6.865520    
 F   4.761630      -2.248290       4.472700    
 P   3.774480      -1.963150       5.660530    
 F  -8.148890      -2.153580      -4.051199    
 F  -6.172320      -2.023210      -1.531900    
 F  -7.601570     -0.7371397      -2.569700    
 F  -6.644030      -3.662530      -3.014400    
 F  -5.895370      -1.634430      -3.727200    
 F  -8.359890      -2.734600      -1.879799    
 P  -7.134340      -2.168460      -2.775900    
 F   3.659440       4.692750       4.118601    
 F   6.301950       4.202850       2.509400    
 F   5.668300       4.274550       4.671801    
 F   4.136150       4.637250       2.014300    
 F   5.243090       6.010450       3.348901    
 F   4.656160       2.889441       3.279600    
 P   4.932130       4.463150       3.313001    
 F  -1.955070       6.243550       6.076140    
 F  -4.680640       4.987950       5.163581    
 F  -3.220810       4.747850       6.751110    
 F  -3.437420       6.856450       4.469900    
 F  -2.644190       4.627851       4.730801    
 F  -4.223000       6.590950       6.612611    
 P  -3.358410       5.697750       5.589340    
 F  -5.208210      -7.223393      -5.385799    
 F  -2.156850      -7.142998      -5.799700    
 F  -3.971740      -6.428286      -6.928799    
 F  -3.511430      -7.931320      -4.303200    
 F  -3.802150      -8.610400      -6.351999    
 F  -3.528540      -5.901547      -4.916100    
 P  -3.706800      -7.230991      -5.651300    
 F -0.1807599      -7.591753       1.477100    
 F   1.233453      -5.701918       3.647100    
 F -5.5179954E-02  -5.489030       1.609600    
 F   1.026403      -7.832810       3.265201    
 F   1.794626      -6.603315       1.522201    
 F -0.8703499      -6.643499       3.327400    
 P  0.4856670      -6.612281       2.501600    
 N   6.015700      0.9842901      -4.883499    
 C   6.517160      0.2518501      -3.894499    
 N   7.709960     -0.2647200      -4.362000    
 C   7.846980      6.7980289E-02  -5.681599    
 C   6.784990      0.8988299      -5.987700    
 H   6.221380      0.2752004      -2.857100    
 H   8.781810     -0.1934500      -6.161800    
 H   6.566400       1.465710      -6.884199    
 C   4.910050       1.961740      -4.600399    
 H   5.128240       2.933910      -5.049700    
 H   4.895200       2.057570      -3.511700    
 H   3.979850       1.553310      -5.003599    
 C   8.749920     -0.8751097      -3.604599    
 H   9.357290     -4.5609951E-02  -3.233500    
 H   9.271910      -1.537260      -4.300100    
 C   8.308690      -1.586390      -2.288500    
 H   9.230600      -1.915270      -1.804399    
 H   7.858380     -0.8972797      -1.570999    
 C   7.365310      -2.791780      -2.441099    
 H   6.612100      -2.434050      -3.146200    
 H   6.956150      -3.017680      -1.454199    
 C   8.121380      -4.018430      -2.921299    
 H   8.798960      -4.293640      -2.110399    
 H   7.419130      -4.805990      -3.202499    
 H   8.746980      -3.821110      -3.794300    
 N  -5.436000      -7.064036       3.018400    
 C  -5.724450      -6.066059       2.139100    
 N  -6.661430      -6.553218       1.284301    
 C  -7.019751      -7.838950       1.748000    
 C  -6.257780      -8.184959       2.878700    
 H  -5.246600      -5.099630       2.095401    
 H  -7.758950      -8.397940       1.187600    
 H  -6.135170      -9.051260       3.516900    
 C  -4.363350      -6.972394       4.002400    
 H  -3.386810      -7.272218       3.613601    
 H  -4.620830      -7.508609       4.919300    
 H  -4.311100      -5.915842       4.277400    
 C  -7.371810      -5.744413      0.3725004    
 H  -7.470500      -6.436862     -0.4673996    
 H  -6.622590      -4.971680      0.1822004    
 C  -8.620080      -4.964110      0.8812008    
 H  -8.455930      -4.419560       1.813400    
 H  -9.039021      -4.309040      0.1145000    
 C  -9.779520      -5.954670       1.312201    
 H  -9.277420      -6.711932       1.918000    
 H  -10.10782      -6.470572      0.4075003    
 C  -11.00372      -5.352830       2.110500    
 H  -11.39242      -4.418780       1.699500    
 H  -11.85862      -6.028181       2.184601    
 H  -10.81572      -5.128490       3.162500    
 N   3.622380      0.8863301       8.798290    
 C   2.480730      0.8874102       7.991641    
 N   2.788240       1.769480       6.957821    
 C   4.055820       2.274640       7.122150    
 C   4.531990       1.800840       8.352871    
 H   1.516330      0.4300699       8.149790    
 H   4.511830       2.958790       6.417251    
 H   5.478870       1.942060       8.859200    
 C   3.840060      7.0340157E-02   9.945490    
 H   4.792010      0.2586603       10.44845    
 H   3.997640     -0.9369297       9.551491    
 H   2.918020     -3.7349701E-02   10.52247    
 C   1.812210       2.413700       5.984860    
 H   1.535409       1.720580       5.186351    
 H   2.449470       3.194820       5.562500    
 C  0.5645800       3.186151       6.412980    
 H  0.1141801       3.599751       5.508261    
 H -0.1849999       2.475460       6.767281    
 C  0.7216250       4.410050       7.397231    
 H   1.419325       4.248550       8.221590    
 H -0.2255100       4.686050       7.865440    
 C   1.327999       5.703751       6.714001    
 H  0.9948100       5.658751       5.675051    
 H  0.9381081       6.646550       7.103380    
 H   2.418350       5.730850       6.767580    
 N   3.686650      -6.426344      -2.809200    
 C   2.647960      -6.237815      -3.671600    
 N   1.546566      -6.785703      -3.082300    
 C   1.989706      -7.254776      -1.887499    
 C   3.314350      -7.129468      -1.782600    
 H   2.778670      -5.718218      -4.608200    
 H   1.247846      -7.679590      -1.222700    
 H   3.992900      -7.286133     -0.9531994    
 C   5.068600      -5.972919      -3.187799    
 H   4.999110      -5.977979      -4.278599    
 H   5.870820      -6.629643      -2.841700    
 H   5.272650      -5.091240      -2.574900    
 C  0.1749201      -6.698812      -3.531700    
 H -0.5362999      -7.228656      -2.892900    
 H  0.1829201      -7.260878      -4.469099    
 C -0.3152699      -5.263220      -3.615299    
 H  0.3741990      -4.581670      -4.117899    
 H  -1.167480      -5.263490      -4.298100    
 C -0.6975200      -4.734930      -2.228100    
 H  0.1938300      -4.674130      -1.600199    
 H  -1.454810      -5.306500      -1.687500    
 C  -1.270610      -3.258070      -2.312899    
 H  -2.178760      -3.200860      -2.916599    
 H  -1.504000      -2.904850      -1.306299    
 H -0.5584300      -2.533840      -2.713900    
 N   2.382400       8.487750       4.036401    
 C   2.390190       7.730950       2.840700    
 N   1.073531       7.500250       2.523701    
 C  0.3204880       7.979050       3.556500    
 C   1.081159       8.752950       4.433400    
 H   3.280330       7.552051       2.257701    
 H -0.7530301       7.844750       3.507200    
 H  0.8452381       9.281350       5.348890    
 C   3.545600       9.007450       4.728901    
 H   4.287230       8.289050       5.087601    
 H   3.170710       9.423350       5.667561    
 H   4.111880       9.736751       4.144100    
 C  0.5997450       6.859050       1.270101    
 H   1.421471       6.614250      0.5923004    
 H -9.9199891E-02   7.512051      0.7412004    
 C -0.2291499       5.536950       1.527000    
 H  -1.061810       5.765950       2.195400    
 H -0.6753399       5.139550      0.6130009    
 C  0.6600111       4.463650       2.261201    
 H   1.032425       4.821250       3.223400    
 H   1.573066       4.234950       1.707500    
 C -0.1590999       3.177890       2.493601    
 H  0.3996711       2.391080       3.004701    
 H -0.9857600       3.455250       3.151000    
 H -0.5490500       2.805870       1.543900    
 N  -1.775710       4.582951      -9.996998    
 C  -1.190300       4.259550      -8.871197    
 N  -1.678830       5.194750      -7.993099    
 C  -2.423030       6.126050      -8.699898    
 C  -2.593080       5.647950      -9.963997    
 H -0.7158298       3.323410      -8.620697    
 H  -2.948360       6.976950      -8.284000    
 H  -3.153330       5.984050      -10.82770    
 C  -1.620140       3.749050      -11.17380    
 H -0.6789500       3.234820      -10.96320    
 H  -1.403680       4.292750      -12.09700    
 H  -2.387350       2.990180      -11.34740    
 C  -1.621420       5.038850      -6.553799    
 H  -1.971060       5.979550      -6.120699    
 H -0.5931599       4.958150      -6.192099    
 C  -2.532740       3.987150      -5.937799    
 H  -2.258140       3.082650      -6.484499    
 H  -2.261180       3.953450      -4.880600    
 C  -4.049920       4.135150      -6.215200    
 H  -4.582150       3.283360      -5.786699    
 H  -4.301630       3.933250      -7.258400    
 C  -4.692530       5.473450      -5.649500    
 H  -5.784400       5.473050      -5.666599    
 H  -4.429060       5.480550      -4.589800    
 H  -4.262130       6.386850      -6.065500    
 N  -3.982260      -6.518240     -0.7272997    
 C  -4.463650      -7.708820      -1.204599    
 N  -3.834950      -8.675819     -0.4392996    
 C  -3.072480      -8.080680      0.5198002    
 C  -3.055070      -6.710546      0.3045006    
 H  -5.012259      -7.837870      -2.124699    
 H  -2.555590      -8.629650       1.297200    
 H  -2.470670      -5.956103      0.8165007    
 C  -4.366150      -5.284270      -1.334099    
 H  -5.362650      -5.346800      -1.778700    
 H  -3.733800      -5.041440      -2.191900    
 H  -4.382810      -4.411950     -0.6756992    
 C  -4.002560      -10.13215     -0.6823997    
 H  -4.599540      -10.27577      -1.586599    
 H  -4.468940      -10.48044      0.2427006    
 C  -2.670470      -10.87440     -0.7317991    
 H  -2.074000      -10.38945      -1.507399    
 H  -2.183550      -10.69788      0.2295008    
 C  -2.779940      -12.39131     -0.8957005    
 H  -3.350300      -12.63798      -1.793699    
 H  -3.400740      -12.78907     -9.0199471E-02
 C  -1.302110      -12.94081      -1.063299    
 H  -1.245770      -13.99529      -1.341499    
 H -0.7506099      -12.50834      -1.900700    
 H -0.7332098      -12.74966     -0.1509991    
 N  -9.487720      0.2739301      0.4761009    
 C  -10.32292     -0.2811699       1.369301    
 N  -9.498321      -1.065620       2.159700    
 C  -8.219420      -1.056310       1.605101    
 C  -8.177160     -0.2020597      0.5078001    
 H  -11.33642     -1.1590004E-02   1.623100    
 H  -7.401740      -1.658260       1.981900    
 H  -7.412370      0.1272902     -0.1845999    
 C  -9.935121       1.077190     -0.6651993    
 H  -10.26292       2.088921     -0.4129000    
 H  -10.78602      0.6035800      -1.161600    
 H  -9.095820       1.101550      -1.364799    
 C  -10.02012      -2.099300       3.046400    
 H  -9.267520      -2.881560       3.173901    
 H  -10.93602      -2.482500       2.589300    
 C  -10.32622      -1.616190       4.522000    
 H  -11.00292     -0.7608500       4.468700    
 H  -10.73742      -2.387860       5.176061    
 C  -9.067320     -0.9473996       5.138400    
 H  -9.240820     -0.5623598       6.145440    
 H  -8.731220     -7.9370022E-02   4.567401    
 C  -7.967490      -2.106090       5.460260    
 H  -7.457860      -2.321060       4.518701    
 H  -7.209610      -1.701390       6.134280    
 H  -8.517720      -2.960500       5.859880    
 N   4.036400      -4.288010       1.392100    
 C   4.142990      -4.916960       2.577901    
 N   5.409220      -5.500350       2.546000    
 C   6.088670      -4.955690       1.489201    
 C   5.206160      -4.203780      0.7409000    
 H   3.453610      -4.913130       3.408000    
 H   7.142800      -5.157230       1.344001    
 H   5.314870      -3.554300     -0.1188993    
 C   2.907420      -3.491150       1.058500    
 H   2.172739      -4.077920      0.5012007    
 H   3.262190      -2.592650      0.5471001    
 H   2.426870      -3.124140       1.969001    
 C   5.978390      -6.289106       3.587501    
 H   5.550150      -5.963176       4.538800    
 H   7.037370      -6.018845       3.599900    
 C   5.872810      -7.794780       3.442101    
 H   6.201070      -7.980070       2.417200    
 H   6.555700      -8.421249       4.019700    
 C   4.405180      -8.235149       3.631201    
 H   4.296730      -9.292330       3.380000    
 H   3.717510      -7.692960       2.978801    
 C   3.906340      -8.070340       5.080400    
 H   3.583200      -7.044816       5.271061    
 H   3.112160      -8.790970       5.286430    
 H   4.767960      -8.325640       5.700810    
 N  -3.808540      0.8679104       6.130521    
 C  -3.833220     -0.3945398       6.663240    
 N  -4.906840     -0.4308896       7.533700    
 C  -5.457320      0.7832999       7.479021    
 C  -4.811450       1.674130       6.616900    
 H  -3.090370      -1.150030       6.459150    
 H  -6.286890      0.9502702       8.154911    
 H  -4.931670       2.707231       6.314990    
 C  -2.844730       1.335000       5.106400    
 H  -3.200330       2.288260       4.707001    
 H  -2.547250      0.7014804       4.266801    
 H  -1.983390       1.569320       5.737110    
 C  -5.242360      -1.522430       8.487061    
 H  -6.315350      -1.433110       8.675131    
 H  -4.628720      -1.309790       9.366190    
 C  -4.955440      -2.887690       7.841240    
 H  -5.527280      -3.008120       6.918760    
 H  -3.932000      -2.948340       7.465250    
 C  -5.094050      -4.106150       8.812281    
 H  -4.482450      -3.948320       9.703071    
 H  -4.707220      -4.981710       8.286711    
 C  -6.545230      -4.382580       9.257530    
 H  -6.954720      -3.534060       9.809620    
 H  -7.128450      -4.381040       8.334320    
 H  -6.699240      -5.249470       9.903481    
 N   4.482890       1.174190     -2.9199600E-02
 C   5.846931       1.394320      0.2602005    
 N   6.223740      0.2241201      0.9650002    
 C   5.054850     -0.4859900       1.142800    
 C   3.984840      7.1490288E-02  0.5038004    
 H   6.483160       2.265630      0.2762003    
 H   5.136210      -1.432270       1.663200    
 H   2.997170     -0.3336997      0.3215008    
 C   3.701590       2.255130     -0.6042995    
 H   4.178840       2.578751      -1.532900    
 H   3.643330       3.103280      8.2600594E-02
 H   2.700360       1.889220     -0.8457994    
 C   7.563970      5.1650047E-02   1.578601    
 H   7.982010       1.044270       1.764601    
 H   8.163180     -0.5641799      0.9031000    
 C   7.610740     -0.5601296       3.037701    
 H   7.049590      -1.496430       3.007501    
 H   8.638360     -0.8251400       3.295000    
 C   7.100790      0.2945004       4.299300    
 H   6.882650     -0.3188100       5.176030    
 H   6.159280      0.7662401       4.010301    
 C   8.064670       1.468500       4.579901    
 H   7.778180       2.443530       4.180301    
 H   8.027810       1.527420       5.669730    
 H   9.096600       1.167960       4.386901    
 N   4.865860       6.186650      -3.409800    
 C   3.633590       6.374750      -3.877699    
 N   3.647750       5.913050      -5.169300    
 C   4.966360       5.677450      -5.527300    
 C   5.735720       5.835550      -4.420399    
 H   2.843370       6.478850      -3.150400    
 H   5.249120       5.334650      -6.514999    
 H   6.785840       5.605550      -4.289000    
 C   5.287910       6.246050      -2.055899    
 H   6.311330       6.613851      -1.946400    
 H   5.120390       5.251350      -1.635000    
 H   4.686990       7.005350      -1.548800    
 C   2.427200       5.647150      -5.971600    
 H   1.576766       5.691950      -5.286400    
 H   2.463510       4.627250      -6.363100    
 C   2.213491       6.525150      -7.199400    
 H   3.007740       6.326750      -7.922100    
 H   1.318661       6.094151      -7.653297    
 C   2.048219       8.048150      -6.931599    
 H   3.032700       8.520550      -6.939299    
 H   1.665929       8.129750      -5.911999    
 C   1.131421       8.720850      -7.909100    
 H   1.166655       9.774150      -7.623196    
 H   1.649179       8.647350      -8.867798    
 H  0.1436100       8.267350      -8.013897    
 N  0.3967311      -3.765270      -8.747601    
 C   1.280536      -3.570250      -7.722996    
 N   1.725113      -2.275360      -7.808796    
 C   1.061493      -1.718240      -8.879997    
 C  0.2011100      -2.624020      -9.451496    
 H   1.535611      -4.346650      -7.018400    
 H   1.307629     -0.6784301      -9.056297    
 H -0.5733000      -2.567100      -10.20650    
 C -0.2471600      -4.990840      -8.981697    
 H  0.3617811      -5.638358      -9.617699    
 H  -1.243530      -4.836600      -9.403698    
 H -0.3040400      -5.440470      -7.986996    
 C   2.821610      -1.703970      -6.993399    
 H   2.957180      -2.316320      -6.098200    
 H   2.633130     -0.6720800      -6.686300    
 C   4.173490      -1.794580      -7.623497    
 H   4.095440      -1.601180      -8.695400    
 H   4.859510      -1.100950      -7.132799    
 C   4.906410      -3.109150      -7.398699    
 H   4.584230      -3.834350      -8.148998    
 H   4.698450      -3.398300      -6.366499    
 C   6.400880      -3.083250      -7.468597    
 H   6.724220      -2.388070      -6.691000    
 H   6.830820      -4.076790      -7.325399    
 H   6.798850      -2.707960      -8.413799    
 N -0.3727299      -2.479300       4.969900    
 C -0.9389000      -3.712840       4.800600    
 N  -1.175810      -4.146370       6.098730    
 C -0.6742100      -3.214250       6.917351    
 C -0.2334499      -2.104710       6.261650    
 H  -1.199260      -4.102840       3.828800    
 H -0.5816699      -3.496130       7.958920    
 H  0.1768800      -1.156590       6.586611    
 C  0.1552401      -1.784710       3.781800    
 H -0.1730299      -2.351830       2.907001    
 H   1.240260      -1.656500       3.812500    
 H -0.2579600     -0.7728996       3.793600    
 C  -1.734400      -5.421440       6.396741    
 H  -2.452270      -5.666690       5.609871    
 H  -2.200170      -5.310870       7.379321    
 C -0.8053501      -6.634368       6.407730    
 H  -1.474280      -7.495180       6.344550    
 H -9.2889905E-02  -6.640665       5.580191    
 C  5.4760098E-02  -6.622195       7.666171    
 H -0.5235000      -6.255311       8.516750    
 H  0.7753230      -5.801693       7.671610    
 C  0.5270951      -8.071750       7.956551    
 H   1.126866      -8.230269       8.855230    
 H -0.2502600      -8.829700       8.073521    
 H   1.168314      -8.363050       7.122021    
 N  -1.355410       11.46285      -2.617100    
 C  -2.016730       10.25925      -2.515999    
 N  -1.029010       9.286050      -2.523899    
 C  0.1974101       9.948251      -2.501400    
 C  1.8300056E-02   11.30625      -2.644199    
 H  -3.076820       10.06505      -2.568499    
 H   1.140018       9.424850      -2.399399    
 H  0.7382571       12.11245      -2.712099    
 C  -2.104010       12.70245      -2.754000    
 H  -1.357400       13.43555      -3.069899    
 H  -2.488380       12.94325      -1.759600    
 H  -2.956150       12.61835      -3.433300    
 C  -1.078270       7.827550      -2.560900    
 H -0.3072599       7.553750      -1.836199    
 H -0.7444000       7.540950      -3.561399    
 C  -2.454200       7.138550      -2.274399    
 H  -3.162240       7.315351      -3.086800    
 H  -2.307330       6.060250      -2.364899    
 C  -3.101350       7.304750     -0.9081993    
 H  -3.309110       8.348351     -0.6627998    
 H  -2.517440       7.000051     -3.7199974E-02
 C  -4.426970       6.444750     -0.8901005    
 H  -5.071640       6.706750     -4.8499107E-02
 H  -5.069870       6.372150      -1.769800    
 H  -4.260290       5.369150     -0.8018999    
 N  -1.508230      0.3616600      -4.450800    
 C  -1.581080      0.2631102      -3.101099    
 N  -2.899130      0.5306101      -2.803799    
 C  -3.601880      0.5097604      -4.038799    
 C  -2.719580      0.3110304      -5.038200    
 H -0.7774498      0.1820703      -2.385599    
 H  -4.676270      0.6016202      -4.139599    
 H  -2.830270      0.2268901      -6.112200    
 C -0.2493000      0.2400103      -5.223000    
 H -0.1230600     -0.7684498      -5.625099    
 H  0.6455790      0.3098602      -4.599300    
 H -0.2617799      0.9620900      -6.043400    
 C  -3.418860      0.7237301      -1.435600    
 H  -2.476640      0.9876599     -0.9484997    
 H  -3.754250     -0.2044697     -0.9659004    
 C  -4.415720       1.892210      -1.295799    
 H  -3.948730       2.793780      -1.697699    
 H  -5.275690       1.582660      -1.893299    
 C  -4.871430       2.069620      0.2054005    
 H  -5.337480       1.158330      0.5860004    
 H  -5.618220       2.864710      0.2565002    
 C  -3.692000       2.534230       1.119600    
 H  -3.006540       1.706571       1.313400    
 H  -3.160260       3.341490      0.6116009    
 H  -4.121860       2.757250       2.098301    
 C  0.0000000E+00  0.0000000E+00  0.0000000E+00
 O -0.4677800      2.3340225E-02  -1.020899    
 O  0.4309561      8.0190182E-02   1.068200    
